Version 4
SHEET 1 3048 1156
WIRE 432 -48 256 -48
WIRE 752 -48 496 -48
WIRE 1360 -48 1184 -48
WIRE 1680 -48 1440 -48
WIRE 656 48 608 48
WIRE 1584 48 1536 48
WIRE 128 96 64 96
WIRE 256 96 256 -48
WIRE 256 96 208 96
WIRE 320 96 256 96
WIRE 448 96 400 96
WIRE 544 96 448 96
WIRE 608 96 608 48
WIRE 1056 96 992 96
WIRE 1184 96 1184 -48
WIRE 1184 96 1120 96
WIRE 1248 96 1184 96
WIRE 1376 96 1312 96
WIRE 1472 96 1376 96
WIRE 1536 96 1536 48
WIRE 752 128 752 -48
WIRE 752 128 704 128
WIRE 800 128 752 128
WIRE 1680 128 1680 -48
WIRE 1680 128 1632 128
WIRE 1728 128 1680 128
WIRE 448 160 448 96
WIRE 544 160 512 160
WIRE 1376 160 1376 96
WIRE 1472 160 1440 160
WIRE 752 176 752 128
WIRE 1680 176 1680 128
WIRE 608 208 608 160
WIRE 656 208 608 208
WIRE 1536 208 1536 160
WIRE 1584 208 1536 208
WIRE -192 224 -288 224
WIRE -288 272 -288 224
WIRE 448 288 448 224
WIRE 512 288 512 160
WIRE 752 288 752 256
WIRE 752 288 512 288
WIRE 1376 288 1376 240
WIRE 1440 288 1440 160
WIRE 1680 288 1680 256
WIRE 1680 288 1440 288
WIRE 752 304 752 288
WIRE 1680 304 1680 288
WIRE -288 384 -288 352
WIRE -288 384 -336 384
WIRE -288 416 -288 384
WIRE 752 432 752 384
WIRE 1680 432 1680 384
WIRE -288 544 -288 496
WIRE -192 544 -288 544
WIRE 848 576 368 576
WIRE -192 592 -288 592
WIRE 368 608 368 576
WIRE -288 624 -288 592
WIRE 1312 640 1248 640
WIRE 1424 640 1376 640
WIRE 1712 640 1424 640
WIRE 1424 704 1424 640
WIRE 240 736 192 736
WIRE 368 736 368 672
WIRE 368 736 320 736
WIRE 416 736 368 736
WIRE 544 736 496 736
WIRE -288 752 -288 704
WIRE 736 752 688 752
WIRE 1600 784 1552 784
WIRE 192 800 192 736
WIRE 192 800 128 800
WIRE 544 800 544 736
WIRE 624 800 544 800
WIRE 688 800 688 752
WIRE 848 832 848 576
WIRE 848 832 784 832
WIRE 896 832 848 832
WIRE 1104 832 1056 832
WIRE 1248 832 1248 640
WIRE 1248 832 1184 832
WIRE 1312 832 1248 832
WIRE 1424 832 1424 784
WIRE 1424 832 1376 832
WIRE 1488 832 1424 832
WIRE 1552 832 1552 784
WIRE 192 864 192 800
WIRE 240 864 192 864
WIRE 368 864 304 864
WIRE 432 864 368 864
WIRE 544 864 544 800
WIRE 544 864 496 864
WIRE 624 864 592 864
WIRE 1712 864 1712 640
WIRE 1712 864 1648 864
WIRE 1760 864 1712 864
WIRE 848 880 848 832
WIRE 1488 896 1456 896
WIRE 688 912 688 864
WIRE 736 912 688 912
WIRE 368 928 368 864
WIRE 1552 944 1552 896
WIRE 1600 944 1552 944
WIRE 1456 960 1456 896
WIRE 592 992 592 864
WIRE 848 992 848 960
WIRE 848 992 592 992
WIRE 848 1008 848 992
WIRE 368 1056 368 1008
WIRE 848 1136 848 1088
FLAG 752 432 0
FLAG 800 128 Vo1
FLAG -336 384 0
FLAG -192 224 Vdd
IOPIN -192 224 Out
FLAG -192 544 Vss
IOPIN -192 544 Out
FLAG -288 752 0
FLAG 64 96 Vi
FLAG -192 592 Vi
IOPIN -192 592 Out
FLAG 656 208 Vss
IOPIN 656 208 In
FLAG 656 48 Vdd
IOPIN 656 48 In
FLAG 448 288 0
FLAG 1680 432 0
FLAG 1728 128 Vo2
FLAG 992 96 Vi
FLAG 1584 208 Vss
IOPIN 1584 208 In
FLAG 1584 48 Vdd
IOPIN 1584 48 In
FLAG 1376 288 0
FLAG 368 1056 0
FLAG 736 912 Vss
IOPIN 736 912 In
FLAG 736 752 Vdd
IOPIN 736 752 In
FLAG 848 1136 0
FLAG 896 832 Vo3
FLAG 128 800 Vi
FLAG 1600 784 Vss
IOPIN 1600 784 In
FLAG 1600 944 Vdd
IOPIN 1600 944 In
FLAG 1456 960 0
FLAG 1056 832 Vi
FLAG 1760 864 Vo4
SYMBOL res 224 80 R90
WINDOW 0 0 56 VBottom 2
WINDOW 3 32 56 VTop 2
SYMATTR InstName R1
SYMATTR Value 3.22k
SYMBOL cap 496 -64 R90
WINDOW 0 0 32 VBottom 2
WINDOW 3 32 32 VTop 2
SYMATTR InstName C1
SYMATTR Value 33n
SYMBOL res 416 80 R90
WINDOW 0 0 56 VBottom 2
WINDOW 3 32 56 VTop 2
SYMATTR InstName R2
SYMATTR Value 3.22k
SYMBOL IC741 624 144 R0
SYMATTR InstName X1
SYMBOL cap 432 160 R0
SYMATTR InstName C2
SYMATTR Value 33n
SYMBOL res 736 160 R0
SYMATTR InstName RB1
SYMATTR Value 5.86k
SYMBOL res 736 288 R0
SYMATTR InstName RA1
SYMATTR Value 10k
SYMBOL voltage -288 256 R0
WINDOW 123 0 0 Left 0
WINDOW 39 0 0 Left 0
SYMATTR InstName V1
SYMATTR Value 15
SYMBOL voltage -288 400 R0
WINDOW 123 0 0 Left 0
WINDOW 39 0 0 Left 0
SYMATTR InstName V2
SYMATTR Value 15
SYMBOL voltage -288 608 R0
WINDOW 123 24 124 Left 2
WINDOW 39 0 0 Left 0
SYMATTR Value2 AC 1 0
SYMATTR InstName V3
SYMATTR Value SINE(0 1 1k)
SYMBOL res 1456 -64 R90
WINDOW 0 0 56 VBottom 2
WINDOW 3 32 56 VTop 2
SYMATTR InstName R3
SYMATTR Value 8.04k
SYMBOL cap 1120 80 R90
WINDOW 0 0 32 VBottom 2
WINDOW 3 32 32 VTop 2
SYMATTR InstName C3
SYMATTR Value 33n
SYMBOL res 1392 256 R180
WINDOW 0 36 76 Left 2
WINDOW 3 36 40 Left 2
SYMATTR InstName R4
SYMATTR Value 8.04k
SYMBOL IC741 1552 144 R0
SYMATTR InstName X2
SYMBOL cap 1312 80 R90
WINDOW 0 0 32 VBottom 2
WINDOW 3 32 32 VTop 2
SYMATTR InstName C4
SYMATTR Value 33n
SYMBOL res 1664 160 R0
SYMATTR InstName RB2
SYMATTR Value 5.86k
SYMBOL res 1664 288 R0
SYMATTR InstName RA2
SYMATTR Value 10k
SYMBOL res 336 720 R90
WINDOW 0 0 56 VBottom 2
WINDOW 3 32 56 VTop 2
SYMATTR InstName R5
SYMATTR Value 0.804k
SYMBOL res 512 720 R90
WINDOW 0 0 56 VBottom 2
WINDOW 3 32 56 VTop 2
SYMATTR InstName R6
SYMATTR Value 0.804k
SYMBOL cap 304 848 R90
WINDOW 0 0 32 VBottom 2
WINDOW 3 32 32 VTop 2
SYMATTR InstName C5
SYMATTR Value 3.3µ
SYMBOL cap 496 848 R90
WINDOW 0 0 32 VBottom 2
WINDOW 3 32 32 VTop 2
SYMATTR InstName C6
SYMATTR Value 3.3µ
SYMBOL cap 384 672 R180
WINDOW 0 24 56 Left 2
WINDOW 3 24 8 Left 2
SYMATTR InstName C7
SYMATTR Value 6.6µ
SYMBOL res 352 912 R0
SYMATTR InstName R7
SYMATTR Value 0.402k
SYMBOL IC741 704 848 R0
SYMATTR InstName X3
SYMBOL res 832 864 R0
SYMATTR InstName RB3
SYMATTR Value 5k
SYMBOL res 832 992 R0
SYMATTR InstName RA3
SYMATTR Value 10k
SYMBOL res 1200 816 R90
WINDOW 0 0 56 VBottom 2
WINDOW 3 32 56 VTop 2
SYMATTR InstName R8
SYMATTR Value 1k
SYMBOL res 1440 800 R180
WINDOW 0 36 76 Left 2
WINDOW 3 36 40 Left 2
SYMATTR InstName R9
SYMATTR Value 400k
SYMBOL cap 1376 816 R90
WINDOW 0 0 32 VBottom 2
WINDOW 3 32 32 VTop 2
SYMATTR InstName C8
SYMATTR Value 1n
SYMBOL cap 1376 624 R90
WINDOW 0 0 32 VBottom 2
WINDOW 3 32 32 VTop 2
SYMATTR InstName C9
SYMATTR Value 1n
SYMBOL IC741 1568 848 M180
SYMATTR InstName X4
TEXT 384 -160 Left 2 ;KRC Lowpass filter
TEXT 1312 -160 Left 2 ;KRC Highpass filter
TEXT 384 512 Left 2 ;Twin-T notch filter
TEXT 1240 528 Left 2 ;Multiple feedback bandpass filter
TEXT -248 -32 Left 2 !;tran 0 10m 2m 1u
TEXT -248 -8 Left 2 !.ac dec 1000 1 1meg
TEXT 1856 280 Left 2 !.meas AC fL1 targ WHEN mag(V(Vo1))=1.121471355
TEXT 1856 312 Left 2 !.meas AC fH2 targ WHEN mag(V(Vo2))=1.121471355
TEXT 1856 344 Left 2 !.meas AC notch MIN mag(V(Vo3))
TEXT 1856 472 Left 2 !.meas AC bandwidth_4 TRIG mag(V(Vo4))=141.4213562 RISE=1 TARG mag(V(Vo4))=141.4213562 FALL=last
TEXT 1856 376 Left 2 !.meas AC fN3 WHEN mag(V(Vo3))=notch
TEXT 1856 408 Left 2 !.meas AC peak MAX mag(V(Vo4))
TEXT 1856 440 Left 2 !.meas AC fP4 WHEN mag(V(Vo4))=peak
TEXT -224 -160 Left 2 ;Soumya Kanta Rana
TEXT 1856 504 Left 2 !.meas TRAN Vo1 PP(V(Vo1)/2) FROM 4m TO 8m\n.meas TRAN Vo2 PP(V(Vo2)/2) FROM 4m TO 8m\n.meas TRAN Vo3 PP(V(Vo3)/2) FROM 4m TO 8m\n.meas TRAN Vo4 PP(V(Vo4)/2) FROM 4m TO 8m
