Version 4
SHEET 1 1764 1108
WIRE 96 -32 -16 -32
WIRE 320 -32 96 -32
WIRE -288 -16 -352 -16
WIRE -16 16 -16 -32
WIRE 96 16 96 -32
WIRE -352 32 -352 -16
WIRE 256 112 208 112
WIRE -16 144 -16 96
WIRE 144 144 -16 144
WIRE 208 144 208 112
WIRE -352 160 -352 112
WIRE -352 160 -416 160
WIRE 320 176 320 -32
WIRE 320 176 304 176
WIRE 352 176 320 176
WIRE -352 208 -352 160
WIRE -16 208 -16 144
WIRE 96 208 96 96
WIRE 144 208 96 208
WIRE 96 240 96 208
WIRE 208 240 208 208
WIRE 256 240 208 240
WIRE -352 336 -352 288
WIRE -288 336 -352 336
WIRE -16 352 -16 272
WIRE 96 352 96 320
FLAG -416 160 0
FLAG -288 -16 Vdd
IOPIN -288 -16 Out
FLAG -288 336 Vss
IOPIN -288 336 Out
FLAG 256 112 Vss
IOPIN 256 112 In
FLAG 256 240 Vdd
IOPIN 256 240 In
FLAG 352 176 Vo1
FLAG -16 352 0
FLAG 96 352 0
SYMBOL IC741 224 160 M180
SYMATTR InstName X1
SYMBOL voltage -352 16 R0
WINDOW 123 0 0 Left 0
WINDOW 39 0 0 Left 0
SYMATTR InstName V1
SYMATTR Value 10
SYMBOL voltage -352 192 R0
WINDOW 123 0 0 Left 0
WINDOW 39 0 0 Left 0
SYMATTR InstName V2
SYMATTR Value 10
SYMBOL res -32 0 R0
SYMATTR InstName R1
SYMATTR Value 1.357k
SYMBOL res 80 0 R0
SYMATTR InstName R2
SYMATTR Value 8k
SYMBOL cap -32 208 R0
SYMATTR InstName C1
SYMATTR Value 0.1µ
SYMBOL res 80 224 R0
SYMATTR InstName R3
SYMATTR Value 2k
TEXT 88 -88 Left 2 ;Relaxation oscillator
TEXT -424 -96 Left 2 !.tran 0 1m 0 1u startup uic
