Version 4
SHEET 1 880 680
WIRE 176 -96 80 -96
WIRE 416 -96 176 -96
WIRE 576 -96 416 -96
WIRE 176 -48 176 -96
WIRE 80 48 80 -96
WIRE 416 64 416 -96
WIRE 576 80 576 -96
WIRE 176 96 176 32
WIRE 336 96 176 96
WIRE 512 128 496 128
WIRE 176 160 176 96
WIRE 336 160 304 160
WIRE 80 208 80 128
WIRE 416 240 416 192
WIRE 496 240 416 240
WIRE 176 288 176 224
WIRE 208 288 176 288
WIRE 304 288 304 160
WIRE 304 288 288 288
WIRE 384 288 304 288
WIRE 576 288 576 176
WIRE 576 288 464 288
WIRE 176 320 176 288
WIRE 576 336 576 288
WIRE 576 464 576 416
FLAG 80 208 0
FLAG 176 320 0
FLAG 576 464 0
FLAG 496 240 0
SYMBOL voltage 80 32 R0
WINDOW 123 -111 54 Left 2
WINDOW 39 0 0 Left 0
SYMATTR Value2 AC 1 0
SYMATTR InstName V1
SYMATTR Value 12
SYMBOL IC741 416 144 R0
SYMATTR InstName X1
SYMBOL zener 192 224 R180
WINDOW 0 24 64 Left 2
WINDOW 3 24 0 Left 2
SYMATTR InstName D1
SYMATTR Value 1N750
SYMATTR Description Diode
SYMATTR Type diode
SYMBOL res 160 -64 R0
SYMATTR InstName R1
SYMATTR Value 5.3k
SYMBOL npn 512 80 R0
SYMATTR InstName Q1
SYMATTR Value 2N2222
SYMBOL res 304 272 R90
WINDOW 0 0 56 VBottom 2
WINDOW 3 32 56 VTop 2
SYMATTR InstName R2
SYMATTR Value 47k
SYMBOL res 480 272 R90
WINDOW 0 0 56 VBottom 2
WINDOW 3 32 56 VTop 2
SYMATTR InstName R3
SYMATTR Value 15.7k
SYMBOL res 560 320 R0
SYMATTR InstName R4
SYMATTR Value 1k
TEXT -464 80 Left 2 !.tran 0 10m 0 10u
TEXT -464 104 Left 2 !;ac dec 1000 1 1meg
TEXT -472 -32 Left 2 ;Soumya \nDC regulated power supply
